FoamFile
{
	version 2.0;
	format ascii;
	class dictionary;
	object controlDict;
}

application m2MeshGen;
