FoamFile
{
	version 	2.0;
	format 		ascii;
	class 		dictionary;
	object		snappyHexMeshDict;
}

geometry
{
	Martlet2.stl
	{
		type triSurfaceMesh;
	}
}



